molecule
     RDKit          3D

 21 21  0  0  0  0  0  0  0  0999 V2000
   -2.5960   -2.2696    0.0648 C   0  0  0  0  0  0  0  0  0  0  0  0
   -1.7187   -1.1363   -0.3760 C   0  0  0  0  0  0  0  0  0  0  0  0
   -1.5694   -0.7889   -1.5405 O   0  0  0  0  0  0  0  0  0  0  0  0
   -1.1424   -0.5510    0.7460 O   0  0  0  0  0  0  0  0  0  0  0  0
   -0.2349    0.4604    0.4178 C   0  0  0  0  0  0  0  0  0  0  0  0
   -0.6980    1.7768    0.5130 C   0  0  0  0  0  0  0  0  0  0  0  0
    0.1642    2.8335    0.2273 C   0  0  0  0  0  0  0  0  0  0  0  0
    1.4846    2.5754   -0.1395 C   0  0  0  0  0  0  0  0  0  0  0  0
    1.9497    1.2583   -0.2153 C   0  0  0  0  0  0  0  0  0  0  0  0
    1.0950    0.1821    0.0702 C   0  0  0  0  0  0  0  0  0  0  0  0
    1.5903   -1.2187    0.0199 C   0  0  0  0  0  0  0  0  0  0  0  0
    0.9771   -2.2262    0.3208 O   0  0  0  0  0  0  0  0  0  0  0  0
    2.8642   -1.3007   -0.4107 O   0  0  0  0  0  0  0  0  0  0  0  0
   -3.0065   -2.7726   -0.8155 H   0  0  0  0  0  0  0  0  0  0  0  0
   -3.4223   -1.8851    0.6675 H   0  0  0  0  0  0  0  0  0  0  0  0
   -2.0086   -2.9949    0.6336 H   0  0  0  0  0  0  0  0  0  0  0  0
   -1.7266    1.9769    0.7996 H   0  0  0  0  0  0  0  0  0  0  0  0
   -0.1930    3.8587    0.2884 H   0  0  0  0  0  0  0  0  0  0  0  0
    2.1566    3.4003   -0.3651 H   0  0  0  0  0  0  0  0  0  0  0  0
    2.9861    1.0849   -0.4964 H   0  0  0  0  0  0  0  0  0  0  0  0
    3.0487   -2.2633   -0.4100 H   0  0  0  0  0  0  0  0  0  0  0  0
  1  2  1  0
  2  3  2  0
  2  4  1  0
  4  5  1  0
  5  6  2  0
  6  7  1  0
  7  8  2  0
  8  9  1  0
  9 10  2  0
 10 11  1  0
 11 12  2  0
 11 13  1  0
 10  5  1  0
  1 14  1  0
  1 15  1  0
  1 16  1  0
  6 17  1  0
  7 18  1  0
  8 19  1  0
  9 20  1  0
 13 21  1  0
M  END
>  <name>  (1) 
molecule

>  <smiles>  (1) 
[H]OC(=O)c1c([H])c([H])c([H])c([H])c1OC(=O)C([H])([H])[H]

$$$$
